6

H         1.2256633424    0.0000000000    -0.9143655662
H         1.2256633380    0.0000000000     0.9143740971
H        -1.2256633380    0.0000000000    -0.9143655662
H        -1.2256633424    0.0000000000     0.9143740971
C         0.6584201117    0.0000000000     0.0000042749
C        -0.6584201117    0.0000000000     0.0000042749
